FoamFile
{
	version                       2.2;
	format                        ascii;
	class                         dictionary;
	location                      "system";
	object                        meshQualityDict;
}

#includeEtc                   "caseDicts/mesh/generation/meshQualityDict.cfg"
