FoamFile
{
	version                       2.2;
	format                        ascii;
	class                         dictionary;
	location                      "system";
	object                        surfaceFeatureExtractDict;
}

new_surface.stl
{
	#includeEtc                   "caseDicts/surface/surfaceFeatureExtractDict.cfg"
}

